/*--------------------------------*- C++ -*----------------------------------*\
  =========                 |
  \\      /  F ield         | OpenFOAM: The Open Source CFD Toolbox
   \\    /   O peration     | Website:  https://openfoam.org
    \\  /    A nd           | Version:  9
     \\/     M anipulation  |
\*---------------------------------------------------------------------------*/
FoamFile
{
    format      ascii;
    class       dictionary;
    object      blockMeshDict;
}
// * * * * * * * * * * * * * * * * * * * * * * * * * * * * * * * * * * * * * //

convertToMeters 0.1;

vertices
(
    (0 0 0)
    (5 0 0)
    (5 5 0)
    (0 5 0)
    (0 0 0.1)
    (5 0 0.1)
    (5 5 0.1)
    (0 5 0.1)
);

blocks
(						 // (1 1 1) -> sem progressão 
    hex (0 1 2 3 4 5 6 7) (20 10 1) simpleGrading (1 0.2 1)
);
			// (5 5 1) -> 25 volumes de controle
			// (15 15 1) -> 225 volumes de controle
			// (20 10 1) -> 200 volumes de controle
edges
(
);

boundary
(
    patch1
    {
        type wall;
        faces
        (
            (3 7 6 2)

        );
    }
    patch2
    {
        type wall;
        faces
        (
            (0 4 7 3)
            (2 6 5 1)
            (1 5 4 0)
        );
    }
    patch3
    {
        type empty;
        faces
        (
            (0 3 2 1)
            (4 5 6 7)
        );
    }
);

mergePatchPairs
(
);

// ************************************************************************* //
