/*--------------------------------*- C++ -*----------------------------------*\
  =========                 |
  \\      /  F ield         | OpenFOAM: The Open Source CFD Toolbox
   \\    /   O peration     | Website:  https://openfoam.org
    \\  /    A nd           | Version:  9
     \\/     M anipulation  |
\*---------------------------------------------------------------------------*/
FoamFile
{
    format      ascii;
    class       polyBoundaryMesh;
    location    "constant/polyMesh";
    object      boundary;
}
// * * * * * * * * * * * * * * * * * * * * * * * * * * * * * * * * * * * * * //

3
(
    patch1
    {
        type            wall;
        inGroups        List<word> 1(wall);
        nFaces          20;
        startFace       370;
    }
    patch2
    {
        type            wall;
        inGroups        List<word> 1(wall);
        nFaces          40;
        startFace       390;
    }
    patch3
    {
        type            empty;
        inGroups        List<word> 1(empty);
        nFaces          400;
        startFace       430;
    }
)

// ************************************************************************* //
